           8
 Lattice="5.420000 0.100000 0.000000 0.0100000 5.440000 0.000000 0.000000 0.000000 5.140000" Properties=species:S:1:pos:R:3
 Si   0.0000000000000000        0.0000000000000000        0.0000000000000000     
 Si   2.3599999999999999        1.3600000000000001        1.3600000000000001     
 Si   2.7200000000000002        2.7200000000000002        0.0000000000000000     
 Si   4.0800000000000001        4.0800000000000001        1.3600000000000001     
 Si   2.7200000000000002        0.0000000000000000        2.7200000000000002     
 Si   4.0800000000000001        1.3600000000000001        4.10800000000000001     
 Si   0.0000000000000000        2.7200000000000002        2.7200000000000002     
 Si   1.3600000000000001        4.0800000000000001        4.0800000000000001     
