8
Lattice="5.44 0.0 0.0 0.0 5.44 0.0 0.0 0.0 5.44" Properties=species:S:1:pos:R:3:forces:R:3 Time=0.0 energy=-1242.3864259223385 stress="-0.011707417620157985 2.8781044318191913e-36 -4.5366405163359964e-20 2.8781044318191913e-36 -0.011707417620158304 -4.5366405163359964e-20 -4.5366405163359964e-20 -4.5366405163359964e-20 -0.011707417620156393" pbc="T T T"
Si       0.00000000       0.00000000       0.00000000      -0.00000000      -0.00000000      -0.00000000
Si       1.36000000       1.36000000       1.36000000      -0.00000000      -0.00000000      -0.00000000
Si       2.72000000       2.72000000       0.00000000      -0.00000000      -0.00000000      -0.00000000
Si       4.08000000       4.08000000       1.36000000       0.00000000      -0.00000000      -0.00000000
Si       2.72000000       0.00000000       2.72000000      -0.00000000      -0.00000000       0.00000000
Si       4.08000000       1.36000000       4.08000000       0.00000000      -0.00000000      -0.00000000
Si       0.00000000       2.72000000       2.72000000       0.00000000      -0.00000000       0.00000000
Si       1.36000000       4.08000000       4.08000000       0.00000000       0.00000000       0.00000000
8
Lattice="5.24 0.1 0.0 0.0 5.44 0.0 0.0 0.0 5.44" Properties=species:S:1:pos:R:3:forces:R:3 Time=0.1 energy=-1240.3482613801161 stress="-0.04299762962167731 0.014238762836632472 -0.012404662524460265 0.014238762836632472 -0.05633105758943577 0.055169018533501125 -0.012404662524460265 0.055169018533501125 -0.05818271875856532" pbc="T T T"
Si       0.00000000       0.00000000       0.00000000       2.83688888      -0.37926559       1.35224228
Si       1.86000000       1.36000000       1.36000000      -5.64155822       0.04248267       0.02653787
Si       2.72000000       2.72000000       0.00000000       1.59874684       1.89258972      -1.98547724
Si       4.08000000       4.08000000       1.36000000      -1.31872227       0.89338266      -0.81393868
Si       2.72000000       0.00000000       2.72000000       1.60204369      -1.97239482       1.88061686
Si       4.08000000       1.36000000       4.08000000      -1.32137980       0.91831179      -0.80955473
Si       0.00000000       2.72000000       2.72000000       2.82933648      -1.44213114       0.29138059
Si       1.36000000       4.08000000       4.08000000      -0.58513866       0.04688939       0.05821707
8
Lattice="5.44 0.0 0.0 0.0 5.44 0.0 0.0 0.0 5.44" Properties=species:S:1:pos:R:3:forces:R:3 Time=0.2 energy=-1237.7081274100633 stress="0.0016818834582754281 0.0 0.0 0.0 -0.0821795360960588 0.0850197493754666 0.0 0.0850197493754666 -0.08217953609605896" pbc="T T T"
Si       0.00000000       0.00000000       0.00000000       0.54825967       0.47085953       0.47085953
Si       2.36000000       1.36000000       1.36000000      -4.95926071       0.00000000       0.00000000
Si       2.72000000       2.72000000       0.00000000       1.66969898       4.50914893      -4.50914893
Si       4.08000000       4.08000000       1.36000000       0.55188870       0.00000000       0.00000000
Si       2.72000000       0.00000000       2.72000000       1.66969898      -4.50914893       4.50914893
Si       4.08000000       1.36000000       4.08000000       0.55188870       0.00000000       0.00000000
Si       0.00000000       2.72000000       2.72000000       0.54825967      -0.47085953      -0.47085953
Si       1.36000000       4.08000000       4.08000000      -0.58051176       0.00000000       0.00000000
